LTspice 26.0.1 for Windows
Circuit: C:\College\Spring26\Sensors\Project\6410_instrumentation_amplifier.net
Start Time: Thu Feb 26 13:18:09 2026
solver = Normal
Maximum thread count: 16
tnom = 27
temp = 27
method = trap
Direct Newton iteration failed to find operating point.
Starting Gmin stepping
Gmin stepping failed to find operating point. Use".option gminsteps=0" to skip all Gmin stepping.
Starting source stepping with srcstepmethod=0
Source stepping succeeded in finding the operating point.

Total elapsed time: 0.304 seconds.

Files loaded:
C:\College\Spring26\Sensors\Project\6410_instrumentation_amplifier.net
C:\Users\brend\AppData\Local\LTspice\lib\sub\LTC.lib

