LTspice 26.0.1 for Windows
Circuit: C:\College\Spring26\Sensors\hw02_ece6140.net
Start Time: Thu Jan 22 18:13:12 2026
solver = Normal
Maximum thread count: 16
tnom = 27
temp = 27
method = trap
Direct Newton iteration succeeded in finding operating point.
Total elapsed time: 0.093 seconds.

Files loaded:
C:\College\Spring26\Sensors\hw02_ece6140.net

